<?xml version="1.0" encoding="ISO-8859-1"?>
<febio_spec version="3.0">
	<Module type="solid"/>
	<Control>
		<analysis>STATIC</analysis>
		<time_steps>25</time_steps>
		<step_size>0.1</step_size>
		<solver>
			<max_refs>15</max_refs>
			<max_ups>10</max_ups>
			<diverge_reform>1</diverge_reform>
			<reform_each_time_step>1</reform_each_time_step>
			<dtol>0.001</dtol>
			<etol>0.01</etol>
			<rtol>0</rtol>
			<lstol>0.9</lstol>
			<min_residual>1e-20</min_residual>
			<qnmethod>BFGS</qnmethod>
			<rhoi>0</rhoi>
		</solver>
		<time_stepper>
			<dtmin>0.01</dtmin>
			<dtmax>0.1</dtmax>
			<max_retries>5</max_retries>
			<opt_iter>10</opt_iter>
		</time_stepper>
	</Control>
	<Globals>
		<Constants>
			<T>0</T>
			<R>0</R>
			<Fc>0</Fc>
		</Constants>
	</Globals>
	<Material>
		<material id="1" name="material_1" type="neo-Hookean">
			<density>1</density>
			<E>0.3</E>
			<v>0.48</v>
		</material>
		<material id="2" name="material_2" type="coupled Mooney-Rivlin">
			<density>1</density>
			<c1>0.1</c1>
			<c2>0.1</c2>
			<k>0.1</k>
		</material>
	</Material>
	<Mesh>
		<Nodes name="Object03">
			<node id="1">3.0,0.0,0.0</node>
			<node id="2">3.25,0.0,0.0</node>
			<node id="3">3.5,0.0,0.0</node>
		</Nodes>
		<Nodes name="Object04">
			<node id="1441">-1.06066017,-1.06066017,0.0</node>
			<node id="1442">0.0,-1.06066017,0.0</node>
			<node id="1443">1.06066017,-1.06066017,0.0</node>
		</Nodes>
		<Elements type="hex8" name="Part8">
			<elem id="1">1,2,3,4,5,6,7,8</elem>
			<elem id="2">9,10,11,12,13,14,15,16</elem>
			<elem id="3">17,18,19,20,21,22,23,24</elem>
		</Elements>
		<Elements type="tet4" name="Part7">
			<elem id="1">1,2,3,4</elem>
			<elem id="2">5,6,7,8</elem>
			<elem id="3">9,10,11,12</elem>
		</Elements>
		<Elements type="tet4" name="Part6">
			<elem id="4">11,12,13,14</elem>
			<elem id="5">15,16,17,18</elem>
			<elem id="6">19,20,21,22</elem>
		</Elements>
		<Surface name="fixed">
			<quad4 id="1">13,14,15,16</quad4>
			<quad4 id="2">17,18,19,20</quad4>
			<quad4 id="3">21,22,23,24</quad4>
		</Surface>
		<Surface name="BP">
			<tri3 id="4">1,2,3</tri3>
			<tri3 id="5">4,5,6</tri3>
			<tri3 id="6">7,8,9</tri3>
		</Surface>
		<Surface name="Surf3">
			<tri3 id="7">1,2,3</tri3>
			<tri3 id="8">4,5,6</tri3>
			<quad4 id="9">7,8,9,10</quad4>
		</Surface>
	</Mesh>
	<MeshDomains>
		<SolidDomain name="Part8" mat="material_2"/>
		<SolidDomain name="Part7" mat="material_1"/>
	</MeshDomains>
	<Boundary>
		<bc name="fixed" type="fix" node_set="@surface:fixed">
			<dofs>x,y,z</dofs>
		</bc>
	</Boundary>
	<Loads>
		<surface_load name="BP" type="pressure" surface="BP">
			<pressure lc="1">0.016</pressure>
			<linear>0</linear>
			<symmetric_stiffness>1</symmetric_stiffness>
		</surface_load>
		<surface_load name="Load3" type="pressure" surface="Surf3">
			<pressure lc="2">0.34</pressure>
			<linear>1</linear>
			<symmetric_stiffness>0</symmetric_stiffness>
		</surface_load>
	</Loads>
	<LoadData>
		<load_controller id="2" type="loadcurve">
			<interpolate>LINEAR</interpolate>
			<points>
				<point>0,0</point>
				<point>1,1</point>
			</points>
		</load_controller>
		<load_controller id="3" type="loadcurve">
			<interpolate>STEP</interpolate>
			<points>
				<point>0,0</point>
				<point>0.5,0.5</point>
				<point>1,1</point>
			</points>
		</load_controller>
	</LoadData>
	<Output>
		<logfile file="C:\Users\Public\Desktop\Model2a.log">
            <element_data data="Ex;Ey;Ez" delim="," file="Model1_strain.csv"/>
			<element_data data="sx;sy;sz" delim="," file="Model1_stress.csv"/>
        </logfile>
		<logfile file="C:\Users\Public\Desktop\Model2b.log">
            <element_data data="Ex;Ey;Ez" delim="," file="Model2_strain.csv"/>
			<element_data data="sx;sy;sz" delim="," file="Model2_stress.csv"/>
        </logfile>
	</Output>
</febio_spec>
