<?xml version="1.0" encoding="utf-8"?>
<febio_spec version="3.0">
	<Module type="solid"></Module>
	<Control>
		<analysis>STATIC</analysis>
		<time_steps>25</time_steps>
		<step_size>0.01</step_size>
		<solver>
			<etol>0.01</etol>
			<rtol>0</rtol>
			<lstol>0.9</lstol>
			<dtol>0.001</dtol>
			<max_refs>15</max_refs>
			<max_ups>10</max_ups>
			<diverge_reform>1</diverge_reform>
			<reform_each_time_step>1</reform_each_time_step>
			<min_residual>1e-20</min_residual>
			<qnmethod>BFGS</qnmethod>
			<rhoi>0</rhoi>
		</solver>
		<time_stepper>
			<dtmin>0.01</dtmin>
			<dtmax>0.1</dtmax>
			<max_retries>5</max_retries>
			<opt_iter>10</opt_iter>
		</time_stepper>
		<output_level>OUTPUT_FINAL</output_level>
	</Control>
	<Globals>
		<Constants>
			<R>0</R>
			<T>0</T>
			<Fc>0</Fc>
		</Constants>
	</Globals>
	<Material>
		<material name="sleeve" id="1" type="neo-Hookean">
			<density>1.0</density>
			<E>0.4</E>
			<v>0.48</v>
		</material>
		<material name="fibrotic" id="2" type="neo-Hookean">
			<density>1.0</density>
			<E>0.6</E>
			<v>0.48</v>
		</material>
		<material name="fibrofatty" id="3" type="neo-Hookean">
			<density>1.0</density>
			<E>0.5</E>
			<v>0.48</v>
		</material>
		<material name="necrotic" id="4" type="neo-Hookean">
			<density>1.0</density>
			<E>0.02</E>
			<v>0.48</v>
		</material>
		<material name="adventitia" id="5" type="neo-Hookean">
			<density>1.0</density>
			<E>0.3</E>
			<v>0.48</v>
		</material>
		<material name="media" id="6" type="neo-Hookean">
			<density>1.0</density>
			<E>0.3</E>
			<v>0.48</v>
		</material>
	</Material>
	<Mesh>
		<Nodes name="AllNodes">
			<node id="1">0.233,0.608,0.015</node>
			<node id="2">0.092,0.595,0.563</node>
			<node id="3">0.091,0.552,0.829</node>
			<node id="4">0.069,0.579,0.882</node>
			<node id="5">0.522,0.499,0.318</node>
		</Nodes>
		<Elements type="tet4" name="Elements_sleeve">
			<elem id="1">4,4,4,3</elem>
			<elem id="2">3,1,5,1</elem>
			<elem id="3">4,3,1,3</elem>
		</Elements>
		<Elements type="tet4" name="Elements_fibrotic">
			<elem id="4">4,3,1,2</elem>
			<elem id="5">3,4,5,2</elem>
			<elem id="6">3,1,1,5</elem>
		</Elements>
		<Elements type="tet4" name="Elements_fibrofatty">
			<elem id="7">1,5,2,2</elem>
			<elem id="8">5,4,1,4</elem>
			<elem id="9">3,3,4,4</elem>
		</Elements>
		<Elements type="tet4" name="Elements_necrotic">
			<elem id="10">5,3,3,1</elem>
			<elem id="11">1,2,3,2</elem>
			<elem id="12">5,5,4,4</elem>
		</Elements>
		<Elements type="tet4" name="Elements_adventitia">
			<elem id="13">4,5,5,4</elem>
			<elem id="14">5,2,1,4</elem>
			<elem id="15">1,1,1,2</elem>
		</Elements>
		<Elements type="tet4" name="Elements_media">
			<elem id="16">5,1,3,4</elem>
			<elem id="17">2,4,2,3</elem>
			<elem id="18">4,2,2,2</elem>
		</Elements>
		<Surface name="ArterySurface_Lumen">
			<tri3 id="1">110,561,706</tri3>
			<tri3 id="2">706,157,110</tri3>
			<tri3 id="3">157,706,739</tri3>
		</Surface>
		<Surface name="ArterySurface_EndCaps">
			<tri3 id="1">192,141,87</tri3>
			<tri3 id="2">87,187,192</tri3>
			<tri3 id="3">215,192,187</tri3>
		</Surface>
	</Mesh>
	<MeshDomains>
		<SolidDomain name="Elements_sleeve" mat="sleeve"></SolidDomain>
		<SolidDomain name="Elements_fibrotic" mat="fibrotic"></SolidDomain>
		<SolidDomain name="Elements_fibrofatty" mat="fibrofatty"></SolidDomain>
		<SolidDomain name="Elements_necrotic" mat="necrotic"></SolidDomain>
		<SolidDomain name="Elements_adventitia" mat="adventitia"></SolidDomain>
		<SolidDomain name="Elements_media" mat="media"></SolidDomain>
	</MeshDomains>
	<Boundary>
		<bc name="FixedEndcaps" type="fix" node_set="@surface:ArterySurface_EndCaps">
			<dofs>x,y,z</dofs>
		</bc>
	</Boundary>
	<Loads>
		<surface_load name="Load" surface="ArterySurface_Lumen" type="pressure">
			<pressure lc="1">0.016</pressure>
			<symmetric_stiffness>1</symmetric_stiffness>
			<linear>1</linear>
		</surface_load>
	</Loads>
	<LoadData>
		<load_controller id="1" type="loadcurve">
			<interpolate>LINEAR</interpolate>
			<points>
				<point>0,0</point>
				<point>1,1</point>
			</points>
		</load_controller>
	</LoadData>
	<Output>
		<logfile file="C:\Users\Public\Desktop\Model.log">
			<element_data data="sx;sy;sz" file="stress.csv" delim=","></element_data>
			<element_data data="Ex;Ey;Ez" file="strain.csv" delim=","></element_data>
		</logfile>
	</Output>
</febio_spec>
