<?xml version="1.0" encoding="ISO-8859-1"?>
<febio_spec version="3.0">
	<Module type="solid"/>
	<Control>
		<analysis>STATIC</analysis>
		<time_steps>25</time_steps>
		<step_size>0.1</step_size>
		<solver>
			<max_refs>15</max_refs>
			<max_ups>10</max_ups>
			<diverge_reform>1</diverge_reform>
			<reform_each_time_step>1</reform_each_time_step>
			<dtol>0.001</dtol>
			<etol>0.01</etol>
			<rtol>0</rtol>
			<lstol>0.9</lstol>
			<min_residual>1e-20</min_residual>
			<qnmethod>BFGS</qnmethod>
			<rhoi>0</rhoi>
		</solver>
		<time_stepper>
			<dtmin>0.01</dtmin>
			<dtmax>0.1</dtmax>
			<max_retries>5</max_retries>
			<opt_iter>10</opt_iter>
		</time_stepper>
	</Control>
	<Globals>
		<Constants>
			<T>0</T>
			<R>0</R>
			<Fc>0</Fc>
		</Constants>
	</Globals>
	<Material>
		<material id="1" name="material_1" type="neo-Hookean">
			<density>1</density>
            <E>3.0000000e-01</E>
            <v>4.8000000e-01</v>
        </material>
	</Material>
	<Mesh>
		<Nodes name="AllNodes">
			<node id="1">0,0,0</node>
		</Nodes>
		<Elements type="tet4" name="element_group_1">
			<elem id="1">1,2,3,4</elem>
		</Elements>
		<Surface name="surface_1">
			<tri3 id="1">1,2,3</tri3>
		</Surface>
	</Mesh>
	<MeshDomains>
		<SolidDomain name="element_group_1" mat="material_1"/>
	</MeshDomains>
	<Boundary>
		<bc name="fixed_surface" type="fix" node_set="@surface:surface_1">
			<dofs>x,y,z</dofs>
		</bc>
	</Boundary>
	<Loads>
		<surface_load name="pressure_1" type="pressure" surface="surface_1">
			<pressure lc="1">0.016</pressure>
			<linear>0</linear>
			<symmetric_stiffness>1</symmetric_stiffness>
		</surface_load>
	</Loads>
	<LoadData>
		<load_controller id="1" type="loadcurve">
			<interpolate>SMOOTH</interpolate>
			<points>
				<point>0,0</point>
				<point>1,1</point>
			</points>
		</load_controller>
	</LoadData>
	<Output>
		<logfile file="C:\Users\Public\Desktop\Model1.log">
            <element_data data="Ex;Ey;Ez" delim="," file="Model1_strain.csv"/>
        </logfile>
	</Output>
</febio_spec>
